1,2,3
q = -1.0

 69 69  0  0  0  0  0  0  0  0  1 V2000
    0.0000   -1.5459    0.0000 C   0  0  0  0  0  0  0  0  0  0  0  0
   -2.2990    0.1914    0.0947 P   0  0  0  0  0  0  0  0  0  0  0  0
    2.2990    0.1914   -0.0947 P   0  0  0  0  0  0  0  0  0  0  0  0
   -2.4298   -1.5558    0.6954 C   0  0  0  0  0  0  0  0  0  0  0  0
   -3.2834    1.1781    1.3815 C   0  0  0  0  0  0  0  0  0  0  0  0
   -3.1800    0.1989   -1.5855 C   0  0  0  0  0  0  0  0  0  0  0  0
    2.4298   -1.5558   -0.6954 C   0  0  0  0  0  0  0  0  0  0  0  0
    3.2834    1.1781   -1.3815 C   0  0  0  0  0  0  0  0  0  0  0  0
    3.1800    0.1989    1.5855 C   0  0  0  0  0  0  0  0  0  0  0  0
   -1.1680   -2.2842    0.3182 C   0  0  0  0  0  0  0  0  0  0  0  0
   -1.1585   -3.6781    0.3024 C   0  0  0  0  0  0  0  0  0  0  0  0
    0.0000   -4.3838    0.0000 C   0  0  0  0  0  0  0  0  0  0  0  0
    1.1680   -2.2842   -0.3182 C   0  0  0  0  0  0  0  0  0  0  0  0
    1.1585   -3.6781   -0.3024 C   0  0  0  0  0  0  0  0  0  0  0  0
   -2.0775   -4.2151    0.5415 H   0  0  0  0  0  0  0  0  0  0  0  0
    0.0000   -5.4714    0.0000 H   0  0  0  0  0  0  0  0  0  0  0  0
    2.0775   -4.2151   -0.5415 H   0  0  0  0  0  0  0  0  0  0  0  0
   -2.5145   -1.4954    1.7901 H   0  0  0  0  0  0  0  0  0  0  0  0
   -3.3330   -2.0730    0.3398 H   0  0  0  0  0  0  0  0  0  0  0  0
    2.5145   -1.4954   -1.7901 H   0  0  0  0  0  0  0  0  0  0  0  0
    3.3330   -2.0730   -0.3398 H   0  0  0  0  0  0  0  0  0  0  0  0
    4.6050    0.5332   -1.7989 C   0  0  0  0  0  0  0  0  0  0  0  0
    5.3250    0.4661   -0.9784 H   0  0  0  0  0  0  0  0  0  0  0  0
    4.4633   -0.4737   -2.2089 H   0  0  0  0  0  0  0  0  0  0  0  0
    5.0669    1.1416   -2.5900 H   0  0  0  0  0  0  0  0  0  0  0  0
    4.6940    0.0202    1.5230 C   0  0  0  0  0  0  0  0  0  0  0  0
    4.9871   -0.8764    0.9614 H   0  0  0  0  0  0  0  0  0  0  0  0
    5.1997    0.8864    1.0798 H   0  0  0  0  0  0  0  0  0  0  0  0
    5.0859   -0.0935    2.5441 H   0  0  0  0  0  0  0  0  0  0  0  0
   -4.6050    0.5332    1.7989 C   0  0  0  0  0  0  0  0  0  0  0  0
   -5.3250    0.4661    0.9783 H   0  0  0  0  0  0  0  0  0  0  0  0
   -4.4633   -0.4737    2.2089 H   0  0  0  0  0  0  0  0  0  0  0  0
   -5.0669    1.1416    2.5900 H   0  0  0  0  0  0  0  0  0  0  0  0
   -4.6940    0.0202   -1.5230 C   0  0  0  0  0  0  0  0  0  0  0  0
   -4.9871   -0.8764   -0.9615 H   0  0  0  0  0  0  0  0  0  0  0  0
   -5.1997    0.8864   -1.0798 H   0  0  0  0  0  0  0  0  0  0  0  0
   -5.0859   -0.0935   -2.5441 H   0  0  0  0  0  0  0  0  0  0  0  0
    2.3791    1.2744   -2.6151 C   0  0  0  0  0  0  0  0  0  0  0  0
    2.1165    0.2895   -3.0214 H   0  0  0  0  0  0  0  0  0  0  0  0
    1.4374    1.7884   -2.3858 H   0  0  0  0  0  0  0  0  0  0  0  0
    2.9031    1.8327   -3.4046 H   0  0  0  0  0  0  0  0  0  0  0  0
    2.5779   -0.9561    2.3918 C   0  0  0  0  0  0  0  0  0  0  0  0
    2.8200   -1.9384    1.9685 H   0  0  0  0  0  0  0  0  0  0  0  0
    2.9854   -0.9237    3.4124 H   0  0  0  0  0  0  0  0  0  0  0  0
    1.4853   -0.8746    2.4525 H   0  0  0  0  0  0  0  0  0  0  0  0
   -2.3791    1.2745    2.6151 C   0  0  0  0  0  0  0  0  0  0  0  0
   -2.1165    0.2895    3.0214 H   0  0  0  0  0  0  0  0  0  0  0  0
   -1.4375    1.7885    2.3858 H   0  0  0  0  0  0  0  0  0  0  0  0
   -2.9032    1.8328    3.4046 H   0  0  0  0  0  0  0  0  0  0  0  0
   -2.5778   -0.9561   -2.3918 C   0  0  0  0  0  0  0  0  0  0  0  0
   -2.8199   -1.9384   -1.9685 H   0  0  0  0  0  0  0  0  0  0  0  0
   -2.9854   -0.9237   -3.4124 H   0  0  0  0  0  0  0  0  0  0  0  0
   -1.4853   -0.8746   -2.4525 H   0  0  0  0  0  0  0  0  0  0  0  0
    3.5394    2.5947   -0.8706 C   0  0  0  0  0  0  0  0  0  0  0  0
    3.9353    3.2129   -1.6888 H   0  0  0  0  0  0  0  0  0  0  0  0
    2.6159    3.0709   -0.5134 H   0  0  0  0  0  0  0  0  0  0  0  0
    4.2759    2.6195   -0.0584 H   0  0  0  0  0  0  0  0  0  0  0  0
    2.8415    1.4999    2.3167 C   0  0  0  0  0  0  0  0  0  0  0  0
    3.2538    2.3862    1.8218 H   0  0  0  0  0  0  0  0  0  0  0  0
    1.7540    1.6267    2.4002 H   0  0  0  0  0  0  0  0  0  0  0  0
    3.2611    1.4648    3.3326 H   0  0  0  0  0  0  0  0  0  0  0  0
   -3.5394    2.5946    0.8705 C   0  0  0  0  0  0  0  0  0  0  0  0
   -3.9354    3.2129    1.6887 H   0  0  0  0  0  0  0  0  0  0  0  0
   -2.6159    3.0709    0.5133 H   0  0  0  0  0  0  0  0  0  0  0  0
   -4.2759    2.6194    0.0584 H   0  0  0  0  0  0  0  0  0  0  0  0
   -2.8414    1.4999   -2.3167 C   0  0  0  0  0  0  0  0  0  0  0  0
   -3.2538    2.3862   -1.8218 H   0  0  0  0  0  0  0  0  0  0  0  0
   -1.7540    1.6267   -2.4002 H   0  0  0  0  0  0  0  0  0  0  0  0
   -3.2610    1.4648   -3.3327 H   0  0  0  0  0  0  0  0  0  0  0  0
  1 10  1  0  0  0  0
  1 13  1  0  0  0  0
  2  4  1  0  0  0  0
  2  5  1  0  0  0  0
  2  6  1  0  0  0  0
  3  7  1  0  0  0  0
  3  8  1  0  0  0  0
  3  9  1  0  0  0  0
  4 10  1  0  0  0  0
  4 18  1  0  0  0  0
  4 19  1  0  0  0  0
  5 30  1  0  0  0  0
  5 46  1  0  0  0  0
  5 62  1  0  0  0  0
  6 34  1  0  0  0  0
  6 50  1  0  0  0  0
  6 66  1  0  0  0  0
  7 13  1  0  0  0  0
  7 20  1  0  0  0  0
  7 21  1  0  0  0  0
  8 22  1  0  0  0  0
  8 38  1  0  0  0  0
  8 54  1  0  0  0  0
  9 26  1  0  0  0  0
  9 42  1  0  0  0  0
  9 58  1  0  0  0  0
 10 11  1  0  0  0  0
 11 12  1  0  0  0  0
 11 15  1  0  0  0  0
 12 14  1  0  0  0  0
 12 16  1  0  0  0  0
 13 14  1  0  0  0  0
 14 17  1  0  0  0  0
 22 23  1  0  0  0  0
 22 24  1  0  0  0  0
 22 25  1  0  0  0  0
 26 27  1  0  0  0  0
 26 28  1  0  0  0  0
 26 29  1  0  0  0  0
 30 31  1  0  0  0  0
 30 32  1  0  0  0  0
 30 33  1  0  0  0  0
 34 35  1  0  0  0  0
 34 36  1  0  0  0  0
 34 37  1  0  0  0  0
 38 39  1  0  0  0  0
 38 40  1  0  0  0  0
 38 41  1  0  0  0  0
 42 43  1  0  0  0  0
 42 44  1  0  0  0  0
 42 45  1  0  0  0  0
 46 47  1  0  0  0  0
 46 48  1  0  0  0  0
 46 49  1  0  0  0  0
 50 51  1  0  0  0  0
 50 52  1  0  0  0  0
 50 53  1  0  0  0  0
 54 55  1  0  0  0  0
 54 56  1  0  0  0  0
 54 57  1  0  0  0  0
 58 59  1  0  0  0  0
 58 60  1  0  0  0  0
 58 61  1  0  0  0  0
 62 63  1  0  0  0  0
 62 64  1  0  0  0  0
 62 65  1  0  0  0  0
 66 67  1  0  0  0  0
 66 68  1  0  0  0  0
 66 69  1  0  0  0  0
M  END
